*EXP.DETAILS: MACH0256MZ                                                             

*FILES
@N  EXP.DATA    AFILE        ADIR
  1 EXP         MACH0256.MZA                                                                                 
@N  SPECIES     SPFILE       SPDIR
  1 SPE         MZCER045.SPE C:\DSSAT45\GENOTYPE\                                                            
@N  ECOTYPE     EFILE        EDIR
  1 ECO         MZCER045.ECO C:\DSSAT45\GENOTYPE\                                                            
@N  CULTIVAR    CFILE        CDIR
  1 CUL         MZCER045.CUL C:\DSSAT45\GENOTYPE\                                                            
@N  SOIL        SFILE        SDIR
  1 SOIL        TO.SOL                                                                                       
@N  WEATHER     WFILE        WDIR
  1 WEATH       MK108031.WTH                                                                                 

*SIMULATION CONTROL
@N  GENERAL     NYERS NREPS START   SDATE RSEED SNAME.................... MODEL...
  1 GE              1     1     S 1999075  2150 DEFAULT SIMULATION CONTRO MZCER045
@N  OPTIONS     WATER NITRO SYMBI PHOSP POTAS DISES  CHEM  TILL   CO2
  1 OP              Y     Y     N     N     N     N     N     Y     M
@N  METHODS     WTHER INCON LIGHT EVAPO INFIL PHOTO HYDRO NSWIT SOMDY MESEV MESOL
  1 ME              M     M     E     R     S     C     R     1     P     S     2
@N  MANAGEMENT  PLANT IRRIG FERTI RESID HARVS
  1 MA              R     R     R     R     M
@N  OUTPUTS     FNAME OVVEW SUMRY FROPT GROUT CAOUT WAOUT NIOUT MIOUT DIOUT  LONG CHOUT OPOUT
  1 OU              N     Y     Y     1     Y     Y     N     N     N     N     N     N     N

!AUTOMATIC MANAGEM
@N  PLANTING      PFRST   PLAST PH2OL PH2OU PH2OD PSTMX PSTMN
  1 PL          1982050 1982064   40.  100.   30.   40.   10.
@N  IRRIGATION  IMDEP ITHRL ITHRU IROFF IMETH IRAMT IREFF
  1 IR            30.   50.  100. GS000 IR001  10.0 1.000
@N  NITROGEN    NMDEP NMTHR NAMNT NCODE NAOFF
  1 NI            30.   50.   25. FE001 GS000
@N  RESIDUES    RIPCN RTIME RIDEP
  1 RE           100.     1   20.
@N  HARVEST     HFRST   HLAST HPCNP HRCNR
  1 HA              0 1983057  100.    0.

*TREATMENTS
@N   R O C TNAME....................  CU  FL  SA  IC  MP  MI  MF  MR  MC  MT  ME  MH  SM
  1  1 1 0 MACH0256_1                  1   1   1   1   1   1   1   1   0   0   0   0   1

*CULTIVARS
@C  CR INGENO CNAME
  1 MZ 990003 SHORT SEASON    

*FIELDS
@L  ID_FIELD WSTA....  FLSA  FLOB  FLDT  FLDD  FLDS  FLST SLTX   SLDP ID_SOIL
  1 -99      MK108031   0.0  -99. -99    -99.  100. -99   -99    -99. TOA0235085
@L             XCRD            YCRD      ELEV              AREA  SLEN  FLWR  SLAS PRMGT
  1        37.51420        -1.31790    -99.00               1.0  100.   1.0 -99.0   -99   -99

*INITIAL CONDITIONS
@C  PCR     ICDAT  ICRT  ICND  ICRN  ICRE  ICWD ICRES ICREN ICREP ICRIP ICRID
  1 MZ    1999075     0     0  1.00  1.00   0.0   500  0.80  0.00  100.    0.
@C   ICBL  SH2O  SNH4  SNO3
  1    5. 0.220   0.1   0.5
  1   15. 0.220   0.1   0.5
  1   30. 0.220   0.1   0.5
  1   40. 0.375   0.1   0.5
  1   50. 0.390   0.1   0.5
  1   61. 0.390   0.1   0.5
  1   71. 0.390   0.1   0.5
  1   82. 0.390   0.1   0.5
  1  111. 0.365   0.1   0.5
  1  140. 0.365   0.1   0.5

*PLANTING DETAILS
@P    PDATE   EDATE  PPOP  PPOE  PLME  PLDS  PLRS  PLRD  PLDP  PLWT  PAGE  PENV  PLPH  SPRL
  1 1999105     -99   3.5   3.5     S     9   75.  -99.   5.0  -99.  -99. -99.0 -99.0 -99.0

*IRRIGATION
@I   IEFF  IDEP  ITHR  IEPT  IOFF  IAME  IAMT
  1 1.000   30.   75.  -99. GS000 IR001   0.0
@I    IDATE  IROP IRVAL
  1 1999130 IR001  50.0
  1 1999141 IR001  40.0

*FERTILIZERS
@F    FDATE  FMCD  FACD  FDEP  FAMN  FAMP  FAMK  FAMC  FAMO  FOCD
  1 1999119 FE005 AP002   10.    2.  -99.  -99.  -99.  -99.   -99
  1 1999150 FE005 AP002   10.    3.  -99.  -99.  -99.  -99.   -99

*RESIDUES
@R    RDATE  RCOD  RAMT  RESN  RESP  RESK  RINP  RDEP  RMET
  1 1999098 RE003    10  4.82  0.00  0.00   50.   15.   -99

*CHEMICALS
@C    CDATE CHCOD CHAMT  CHME CHDEP   CHT

*TILLAGE
@T    TDATE TIMPL  TDEP

*ENVIRONMENT
@E    ODATE  EDAY  ERAD  EMAX  EMIN ERAIN  ECO2  EDEW EWIND

*HARVEST
@H    HDATE  HSTG  HCOM HSIZE   HPC  HBPC
