*MODEL INPUT FILE            B    47     1     1   999     0
*FILES              
MODEL          MZCER045
FILEX          MACH0256.MZX                                                                                 
FILEA          MACH0256.MZA                                                                                 
FILET          MACH0256.MZT                                                                                 
SPECIES        MZCER045.SPE C:\DSSAT45\GENOTYPE\                                                            
ECOTYPE        MZCER045.ECO C:\DSSAT45\GENOTYPE\                                                            
CULTIVAR       MZCER045.CUL C:\DSSAT45\GENOTYPE\                                                            
PESTS          MZCER045.PST C:\DSSAT45\PEST\                                                                
SOILS          TO.SOL                                                                                       
WEATHER        MK108031.WTH                                                                                 
OUTPUT         OVERVIEW
*SIMULATION CONTROL 
                   1     1     S 1999075  2150 DEFAULT SIMULATION CONTRO
                   Y     Y     N     N     N     N     N     Y     M
                   M     M     E     R     S     C     R     1     P     S     2
                   R     R     R     R     M
                   N     Y     Y     1     Y     Y     N     N     N     N     N     N     N
!AUTOMATIC MANAGEM  
               1982050 1982064   40.  100.   30.   40.   10.
                 30.   50.  100. GS000 IR001  10.0 1.000
                 30.   50.   25. FE001 GS000
                100.     1   20.
                     0 1983057  100.    0.
*EXP.DETAILS        
  1MACH0256 MZ                                                             
*TREATMENTS         
  1 1 1 0 MACH0256_1               
*CULTIVARS          
   MZ 990003 SHORT SEASON    
*FIELDS             
   -99      MK108031   0.0  -99. -99    -99. 100.0 -99   -99    -99. TOA0235085
          37.51420        -1.31790    -99.00               1.0  100.   1.0 -99.0   -99   -99
*INITIAL CONDITIONS 
   MZ    1999075     0     0  1.00  1.00   0.0   500  0.80  0.00  100.    0.
      5. 0.220 0.060 0.500
     15. 0.220 0.060 0.500
     30. 0.220 0.060 0.500
     40. 0.375 0.060 0.500
     50. 0.390 0.060 0.500
     61. 0.390 0.060 0.500
     71. 0.390 0.060 0.500
     82. 0.390 0.060 0.500
    111. 0.365 0.060 0.500
    140. 0.365 0.060 0.500
*PLANTING DETAILS   
   1999105     -99   3.5   3.5     S     9   75.  -99.   5.0  -99.  -99. -99.0 -99.0 -99.0
*IRRIGATION         
   1.000   30.   75.  -99. GS000 IR001   0.0
   1999130 IR001  50.0
   1999141 IR001  40.0
*FERTILIZERS        
   1999119 FE005 AP002   10.    2.  -99.  -99.  -99.  -99.   -99
   1999150 FE005 AP002   10.    3.  -99.  -99.  -99.  -99.   -99
*RESIDUES           
   1999098 RE003    10  4.82  0.00  0.00   50.   15.   -99
*CHEMICALS          
*TILLAGE            
*ENVIRONMENT        
*HARVEST            
*SOIL               
 TOA0235085  MSUWUR      -99    -99. -99                                               
 -99         -99          -0.009  -0.099 -99                                               
 -99    0.10 -99.0  0.30   60.  1.00  0.92 -99   -99   -99   -99  
    5.       0.170 0.270 0.484 1.000  -99.  1.30 0.900  27.5   9.0   0.0  -9.0  6.50-99.00-99.00-99.00
   15.       0.170 0.270 0.484 1.000  -99.  1.30 0.900  27.5   9.0   0.0  -9.0  6.50-99.00-99.00-99.00
   30.       0.170 0.270 0.484 0.947  -99.  1.30 0.900  27.5   9.0   0.0  -9.0  6.50-99.00-99.00-99.00
   40.       0.310 0.440 0.450 0.722  -99.  1.40 -99.0  53.0  15.0   0.0  -9.0  6.00-99.00-99.00-99.00
   50.       0.330 0.450 0.484 0.515  -99.  1.30 -99.0  55.0  17.0   0.0  -9.0  6.40-99.00-99.00-99.00
   61.       0.330 0.450 0.484 0.515  -99.  1.30 -99.0  55.0  17.0   0.0  -9.0  6.40-99.00-99.00-99.00
   71.       0.330 0.450 0.484 0.327  -99.  1.30 -99.0  55.0  17.0   0.0  -9.0  6.40-99.00-99.00-99.00
   82.       0.330 0.450 0.484 0.327  -99.  1.30 -99.0  55.0  17.0   0.0  -9.0  6.40-99.00-99.00-99.00
  111.       0.300 0.430 0.484 0.190  -99.  1.30 -99.0  51.0  22.0   0.0  -9.0  6.70-99.00-99.00-99.00
  140.       0.300 0.430 0.484 0.101  -99.  1.30 -99.0  51.0  22.0   0.0  -9.0  6.70-99.00-99.00-99.00
                    
    5.-99.00 -99.0 -99.0 -99.0 -99.0 -99.0 -99.0 -99.0 -99.0 -99.0-99.00 -99.0 -99.0 -99.0 -99.0 -99.0 0.680
   15.-99.00 -99.0 -99.0 -99.0 -99.0 -99.0 -99.0 -99.0 -99.0 -99.0-99.00 -99.0 -99.0 -99.0 -99.0 -99.0 0.680
   30.-99.00 -99.0 -99.0 -99.0 -99.0 -99.0 -99.0 -99.0 -99.0 -99.0-99.00 -99.0 -99.0 -99.0 -99.0 -99.0 0.720
   40.-99.00 -99.0 -99.0 -99.0 -99.0 -99.0 -99.0 -99.0 -99.0 -99.0-99.00 -99.0 -99.0 -99.0 -99.0 -99.0  -99.
   50.-99.00 -99.0 -99.0 -99.0 -99.0 -99.0 -99.0 -99.0 -99.0 -99.0-99.00 -99.0 -99.0 -99.0 -99.0 -99.0  -99.
   61.-99.00 -99.0 -99.0 -99.0 -99.0 -99.0 -99.0 -99.0 -99.0 -99.0-99.00 -99.0 -99.0 -99.0 -99.0 -99.0  -99.
   71.-99.00 -99.0 -99.0 -99.0 -99.0 -99.0 -99.0 -99.0 -99.0 -99.0-99.00 -99.0 -99.0 -99.0 -99.0 -99.0  -99.
   82.-99.00 -99.0 -99.0 -99.0 -99.0 -99.0 -99.0 -99.0 -99.0 -99.0-99.00 -99.0 -99.0 -99.0 -99.0 -99.0  -99.
  111.-99.00 -99.0 -99.0 -99.0 -99.0 -99.0 -99.0 -99.0 -99.0 -99.0-99.00 -99.0 -99.0 -99.0 -99.0 -99.0  -99.
  140.-99.00 -99.0 -99.0 -99.0 -99.0 -99.0 -99.0 -99.0 -99.0 -99.0-99.00 -99.0 -99.0 -99.0 -99.0 -99.0  -99.
*CULTIVAR           
990003 SHORT SEASON     IB0001  110.0 0.300 680.0 820.4  6.60 38.90
