!This soil file is created by DSSAT translator tool on Wed Aug 13 14:02:17 EDT 2014.
*SOILS: 

!The ACE ID is N/A.
!This soil data is used for the experiment of MACH0003_1.
!
*TOA0235024  MSUWUR      -99     -99 -99
@SITE        COUNTRY          LAT     LONG SCS FAMILY
 -99         -99               -99     -99 -99
@ SCOM  SALB  SLU1  SLDR  SLRO  SLNF  SLPF  SMHB  SMPX  SMKE
   -99  0.10   -99   0.3    60   -99  0.92   -99   -99   -99
@  SLB  SLMH  SLLL  SDUL  SSAT  SRGF  SSKS  SBDM  SLOC  SLCL  SLSI  SLCF  SLNI  SLHW  SLHB  SCEC  SADC
     5   -99  0.14  0.22 0.484 1.000   -99   1.3   0.5  22.5     9     0   -99   6.5   -99   -99   -99
    15   -99  0.14  0.22 0.484 1.000   -99   1.3   0.5  22.5     9     0   -99   6.5   -99   -99   -99
    30   -99  0.14  0.22 0.484 0.947   -99   1.3   0.5  22.5     9     0   -99   6.5   -99   -99   -99
    40   -99  0.31  0.44 0.449 0.722   -99   1.4     0    53    15     0   -99     6   -99   -99   -99
    61   -99  0.33  0.45 0.484 0.515   -99   1.3     0    55    17     0   -99   6.4   -99   -99   -99
    82   -99  0.33  0.45 0.484 0.327   -99   1.3     0    55    17     0   -99   6.4   -99   -99   -99
   111   -99   0.3  0.43 0.484 0.190   -99   1.3     0    51    22     0   -99   6.7   -99   -99   -99
   140   -99   0.3  0.43 0.484 0.101   -99   1.3     0    51    22     0   -99   6.7   -99   -99   -99

!The ACE ID is N/A.
!This soil data is used for the experiment of MACH0060_1.
!
*TOA0235076  MSUWUR      -99     -99 -99
@SITE        COUNTRY          LAT     LONG SCS FAMILY
 -99         -99               -99     -99 -99
@ SCOM  SALB  SLU1  SLDR  SLRO  SLNF  SLPF  SMHB  SMPX  SMKE
   -99  0.10   -99   0.3    60   -99  0.92   -99   -99   -99
@  SLB  SLMH  SLLL  SDUL  SSAT  SRGF  SSKS  SBDM  SLOC  SLCL  SLSI  SLCF  SLNI  SLHW  SLHB  SCEC  SADC
     5   -99  0.22  0.32 0.484 1.000   -99   1.3   0.9    35     9     0   -99   6.5   -99   -99   -99
    15   -99  0.22  0.32 0.484 1.000   -99   1.3   0.9    35     9     0   -99   6.5   -99   -99   -99
    30   -99  0.22  0.32 0.484 0.947   -99   1.3   0.9    35     9     0   -99   6.5   -99   -99   -99
    40   -99  0.31  0.44 0.449 0.722   -99   1.4     0    53    15     0   -99     6   -99   -99   -99
    61   -99  0.33  0.45 0.484 0.515   -99   1.3     0    55    17     0   -99   6.4   -99   -99   -99
    82   -99  0.33  0.45 0.484 0.327   -99   1.3     0    55    17     0   -99   6.4   -99   -99   -99
   111   -99   0.3  0.43 0.484 0.190   -99   1.3     0    51    22     0   -99   6.7   -99   -99   -99
   140   -99   0.3  0.43 0.484 0.101   -99   1.3     0    51    22     0   -99   6.7   -99   -99   -99

!The ACE ID is N/A.
!This soil data is used for the experiment of MACH0001_1.
!
*TOA0235063  MSUWUR      -99     -99 -99
@SITE        COUNTRY          LAT     LONG SCS FAMILY
 -99         -99               -99     -99 -99
@ SCOM  SALB  SLU1  SLDR  SLRO  SLNF  SLPF  SMHB  SMPX  SMKE
   -99  0.10   -99   0.3    60   -99  0.92   -99   -99   -99
@  SLB  SLMH  SLLL  SDUL  SSAT  SRGF  SSKS  SBDM  SLOC  SLCL  SLSI  SLCF  SLNI  SLHW  SLHB  SCEC  SADC
     5   -99  0.12  0.19 0.484 1.000   -99   1.3   0.8  17.5     9     0   -99   6.5   -99   -99   -99
    15   -99  0.12  0.19 0.484 1.000   -99   1.3   0.8  17.5     9     0   -99   6.5   -99   -99   -99
    30   -99  0.12  0.19 0.484 0.947   -99   1.3   0.8  17.5     9     0   -99   6.5   -99   -99   -99
    40   -99  0.31  0.44 0.449 0.722   -99   1.4     0    53    15     0   -99     6   -99   -99   -99
    61   -99  0.33  0.45 0.484 0.515   -99   1.3     0    55    17     0   -99   6.4   -99   -99   -99
    82   -99  0.33  0.45 0.484 0.327   -99   1.3     0    55    17     0   -99   6.4   -99   -99   -99
   111   -99   0.3  0.43 0.484 0.190   -99   1.3     0    51    22     0   -99   6.7   -99   -99   -99
   140   -99   0.3  0.43 0.484 0.101   -99   1.3     0    51    22     0   -99   6.7   -99   -99   -99

!The ACE ID is N/A.
!This soil data is used for the experiment of MACH0038_1.
!
*TOA0248085  MSUWUR      -99     -99 -99
@SITE        COUNTRY          LAT     LONG SCS FAMILY
 -99         -99               -99     -99 -99
@ SCOM  SALB  SLU1  SLDR  SLRO  SLNF  SLPF  SMHB  SMPX  SMKE
   -99  0.10   -99   0.3    60   -99  0.92   -99   -99   -99
@  SLB  SLMH  SLLL  SDUL  SSAT  SRGF  SSKS  SBDM  SLOC  SLCL  SLSI  SLCF  SLNI  SLHW  SLHB  SCEC  SADC
     5   -99  0.17  0.27 0.484 1.000   -99   1.3   0.9  27.5     9     0   -99   6.5   -99   -99   -99
    15   -99  0.17  0.27 0.484 1.000   -99   1.3   0.9  27.5     9     0   -99   6.5   -99   -99   -99
    30   -99  0.17  0.27 0.484 0.947   -99   1.3   0.9  27.5     9     0   -99   6.5   -99   -99   -99
    41   -99  0.26  0.37 0.484 0.714   -99   1.3   0.5    43     8     0   -99   5.2   -99   -99   -99
    52   -99  0.26  0.37 0.484 0.562   -99   1.3   0.5    43     8     0   -99   5.2   -99   -99   -99
    81   -99  0.27  0.39 0.484 0.364   -99   1.3   0.3    45     8     0   -99   5.3   -99   -99   -99
   110   -99  0.27  0.39 0.484 0.194   -99   1.3   0.3    45     8     0   -99   5.3   -99   -99   -99
   167   -99   0.3  0.42 0.484 0.076   -99   1.3   0.1    51    10     0   -99   5.8   -99   -99   -99
   224   -99   0.3  0.42 0.484 0.022   -99   1.3   0.1    51    10     0   -99   5.8   -99   -99   -99
   280   -99   0.3  0.42 0.484 0.006   -99   1.3   0.1    51    10     0   -99   5.8   -99   -99   -99

!The ACE ID is N/A.
!This soil data is used for the experiment of MACH0044_1.
!
*TOA0230097  MSUWUR      -99     -99 -99
@SITE        COUNTRY          LAT     LONG SCS FAMILY
 -99         -99               -99     -99 -99
@ SCOM  SALB  SLU1  SLDR  SLRO  SLNF  SLPF  SMHB  SMPX  SMKE
   -99  0.10   -99   0.3    60   -99  0.92   -99   -99   -99
@  SLB  SLMH  SLLL  SDUL  SSAT  SRGF  SSKS  SBDM  SLOC  SLCL  SLSI  SLCF  SLNI  SLHW  SLHB  SCEC  SADC
     5   -99  0.27  0.39 0.484 1.000   -99   1.3     1    45     9     0   -99   6.5   -99   -99   -99
    15   -99  0.27  0.39 0.484 1.000   -99   1.3     1    45     9     0   -99   6.5   -99   -99   -99
    30   -99  0.27  0.39 0.484 0.947   -99   1.3     1    45     9     0   -99   6.5   -99   -99   -99
    40   -99  0.16  0.25 0.484 0.722   -99   1.3   0.7    25    15     0   -99   6.5   -99   -99   -99
    50   -99  0.16  0.25 0.484 0.581   -99   1.3   0.7    25    15     0   -99   6.5   -99   -99   -99
    75   -99  0.16  0.25 0.484 0.397   -99   1.3   0.5    25    15     0   -99   6.5   -99   -99   -99
   100   -99  0.16  0.25 0.484 0.231   -99   1.3   0.5    25    15     0   -99   6.5   -99   -99   -99

!The ACE ID is N/A.
!This soil data is used for the experiment of MACH0255_1.
!
*TOA0235085  MSUWUR      -99     -99 -99
@SITE        COUNTRY          LAT     LONG SCS FAMILY
 -99         -99               -99     -99 -99
@ SCOM  SALB  SLU1  SLDR  SLRO  SLNF  SLPF  SMHB  SMPX  SMKE
   -99  0.10   -99   0.3    60   -99  0.92   -99   -99   -99
@  SLB  SLMH  SLLL  SDUL  SSAT  SRGF  SSKS  SBDM  SLOC  SLCL  SLSI  SLCF  SLNI  SLHW  SLHB  SCEC  SADC
     5   -99  0.17  0.27 0.484 1.000   -99   1.3   0.9  27.5     9     0   -99   6.5   -99   -99   -99
    15   -99  0.17  0.27 0.484 1.000   -99   1.3   0.9  27.5     9     0   -99   6.5   -99   -99   -99
    30   -99  0.17  0.27 0.484 0.947   -99   1.3   0.9  27.5     9     0   -99   6.5   -99   -99   -99
    40   -99  0.31  0.44 0.449 0.722   -99   1.4     0    53    15     0   -99     6   -99   -99   -99
    61   -99  0.33  0.45 0.484 0.515   -99   1.3     0    55    17     0   -99   6.4   -99   -99   -99
    82   -99  0.33  0.45 0.484 0.327   -99   1.3     0    55    17     0   -99   6.4   -99   -99   -99
   111   -99   0.3  0.43 0.484 0.190   -99   1.3     0    51    22     0   -99   6.7   -99   -99   -99
   140   -99   0.3  0.43 0.484 0.101   -99   1.3     0    51    22     0   -99   6.7   -99   -99   -99

!The ACE ID is N/A.
!This soil data is used for the experiment of MACH0007_1.
!
*TOA0235054  MSUWUR      -99     -99 -99
@SITE        COUNTRY          LAT     LONG SCS FAMILY
 -99         -99               -99     -99 -99
@ SCOM  SALB  SLU1  SLDR  SLRO  SLNF  SLPF  SMHB  SMPX  SMKE
   -99  0.10   -99   0.3    60   -99  0.92   -99   -99   -99
@  SLB  SLMH  SLLL  SDUL  SSAT  SRGF  SSKS  SBDM  SLOC  SLCL  SLSI  SLCF  SLNI  SLHW  SLHB  SCEC  SADC
     5   -99  0.14  0.23 0.484 1.000   -99   1.3   0.8  22.5     9     0   -99   6.5   -99   -99   -99
    15   -99  0.14  0.23 0.484 1.000   -99   1.3   0.8  22.5     9     0   -99   6.5   -99   -99   -99
    30   -99  0.14  0.23 0.484 0.947   -99   1.3   0.8  22.5     9     0   -99   6.5   -99   -99   -99
    40   -99  0.31  0.44 0.449 0.722   -99   1.4     0    53    15     0   -99     6   -99   -99   -99
    61   -99  0.33  0.45 0.484 0.515   -99   1.3     0    55    17     0   -99   6.4   -99   -99   -99
    82   -99  0.33  0.45 0.484 0.327   -99   1.3     0    55    17     0   -99   6.4   -99   -99   -99
   111   -99   0.3  0.43 0.484 0.190   -99   1.3     0    51    22     0   -99   6.7   -99   -99   -99
   140   -99   0.3  0.43 0.484 0.101   -99   1.3     0    51    22     0   -99   6.7   -99   -99   -99

!The ACE ID is N/A.
!This soil data is used for the experiment of MACH0019_1.
!
*TOA0235034  MSUWUR      -99     -99 -99
@SITE        COUNTRY          LAT     LONG SCS FAMILY
 -99         -99               -99     -99 -99
@ SCOM  SALB  SLU1  SLDR  SLRO  SLNF  SLPF  SMHB  SMPX  SMKE
   -99  0.10   -99   0.3    60   -99  0.92   -99   -99   -99
@  SLB  SLMH  SLLL  SDUL  SSAT  SRGF  SSKS  SBDM  SLOC  SLCL  SLSI  SLCF  SLNI  SLHW  SLHB  SCEC  SADC
     5   -99  0.14  0.22 0.484 1.000   -99   1.3   0.6  22.5     9     0   -99   6.5   -99   -99   -99
    15   -99  0.14  0.22 0.484 1.000   -99   1.3   0.6  22.5     9     0   -99   6.5   -99   -99   -99
    30   -99  0.14  0.22 0.484 0.947   -99   1.3   0.6  22.5     9     0   -99   6.5   -99   -99   -99
    40   -99  0.31  0.44 0.449 0.722   -99   1.4     0    53    15     0   -99     6   -99   -99   -99
    61   -99  0.33  0.45 0.484 0.515   -99   1.3     0    55    17     0   -99   6.4   -99   -99   -99
    82   -99  0.33  0.45 0.484 0.327   -99   1.3     0    55    17     0   -99   6.4   -99   -99   -99
   111   -99   0.3  0.43 0.484 0.190   -99   1.3     0    51    22     0   -99   6.7   -99   -99   -99
   140   -99   0.3  0.43 0.484 0.101   -99   1.3     0    51    22     0   -99   6.7   -99   -99   -99

!The ACE ID is N/A.
!This soil data is used for the experiment of MACH0023_1.
!
*TOA0235033  MSUWUR      -99     -99 -99
@SITE        COUNTRY          LAT     LONG SCS FAMILY
 -99         -99               -99     -99 -99
@ SCOM  SALB  SLU1  SLDR  SLRO  SLNF  SLPF  SMHB  SMPX  SMKE
   -99  0.10   -99   0.3    60   -99  0.92   -99   -99   -99
@  SLB  SLMH  SLLL  SDUL  SSAT  SRGF  SSKS  SBDM  SLOC  SLCL  SLSI  SLCF  SLNI  SLHW  SLHB  SCEC  SADC
     5   -99  0.11  0.18 0.484 1.000   -99   1.3   0.6  17.5     9     0   -99   6.5   -99   -99   -99
    15   -99  0.11  0.18 0.484 1.000   -99   1.3   0.6  17.5     9     0   -99   6.5   -99   -99   -99
    30   -99  0.11  0.18 0.484 0.947   -99   1.3   0.6  17.5     9     0   -99   6.5   -99   -99   -99
    40   -99  0.31  0.44 0.449 0.722   -99   1.4     0    53    15     0   -99     6   -99   -99   -99
    61   -99  0.33  0.45 0.484 0.515   -99   1.3     0    55    17     0   -99   6.4   -99   -99   -99
    82   -99  0.33  0.45 0.484 0.327   -99   1.3     0    55    17     0   -99   6.4   -99   -99   -99
   111   -99   0.3  0.43 0.484 0.190   -99   1.3     0    51    22     0   -99   6.7   -99   -99   -99
   140   -99   0.3  0.43 0.484 0.101   -99   1.3     0    51    22     0   -99   6.7   -99   -99   -99

!The ACE ID is N/A.
!This soil data is used for the experiment of MACH0012_1.
!
*TOA0235044  MSUWUR      -99     -99 -99
@SITE        COUNTRY          LAT     LONG SCS FAMILY
 -99         -99               -99     -99 -99
@ SCOM  SALB  SLU1  SLDR  SLRO  SLNF  SLPF  SMHB  SMPX  SMKE
   -99  0.10   -99   0.3    60   -99  0.92   -99   -99   -99
@  SLB  SLMH  SLLL  SDUL  SSAT  SRGF  SSKS  SBDM  SLOC  SLCL  SLSI  SLCF  SLNI  SLHW  SLHB  SCEC  SADC
     5   -99  0.14  0.22 0.484 1.000   -99   1.3   0.7  22.5     9     0   -99   6.5   -99   -99   -99
    15   -99  0.14  0.22 0.484 1.000   -99   1.3   0.7  22.5     9     0   -99   6.5   -99   -99   -99
    30   -99  0.14  0.22 0.484 0.947   -99   1.3   0.7  22.5     9     0   -99   6.5   -99   -99   -99
    40   -99  0.31  0.44 0.449 0.722   -99   1.4     0    53    15     0   -99     6   -99   -99   -99
    61   -99  0.33  0.45 0.484 0.515   -99   1.3     0    55    17     0   -99   6.4   -99   -99   -99
    82   -99  0.33  0.45 0.484 0.327   -99   1.3     0    55    17     0   -99   6.4   -99   -99   -99
   111   -99   0.3  0.43 0.484 0.190   -99   1.3     0    51    22     0   -99   6.7   -99   -99   -99
   140   -99   0.3  0.43 0.484 0.101   -99   1.3     0    51    22     0   -99   6.7   -99   -99   -99

!The ACE ID is N/A.
!This soil data is used for the experiment of MACH0006_1.
!
*TOA0252082  MSUWUR      -99     -99 -99
@SITE        COUNTRY          LAT     LONG SCS FAMILY
 -99         -99               -99     -99 -99
@ SCOM  SALB  SLU1  SLDR  SLRO  SLNF  SLPF  SMHB  SMPX  SMKE
   -99  0.10   -99   0.3    60   -99  0.92   -99   -99   -99
@  SLB  SLMH  SLLL  SDUL  SSAT  SRGF  SSKS  SBDM  SLOC  SLCL  SLSI  SLCF  SLNI  SLHW  SLHB  SCEC  SADC
     5   -99  0.09  0.15 0.484 1.000   -99   1.3   0.9  12.5     9     0   -99   6.5   -99   -99   -99
    15   -99  0.09  0.15 0.484 1.000   -99   1.3   0.9  12.5     9     0   -99   6.5   -99   -99   -99
    30   -99  0.09  0.15 0.484 0.947   -99   1.3   0.9  12.5     9     0   -99   6.5   -99   -99   -99
    42   -99  0.19  0.29 0.413 0.706   -99   1.5   0.2    32    10     0   -99   5.6   -99   -99   -99
    53   -99  0.19  0.29 0.413 0.550   -99   1.5   0.2    32    10     0   -99   5.6   -99   -99   -99

!The ACE ID is N/A.
!This soil data is used for the experiment of MACH0035_1.
!
*TOA0230076  MSUWUR      -99     -99 -99
@SITE        COUNTRY          LAT     LONG SCS FAMILY
 -99         -99               -99     -99 -99
@ SCOM  SALB  SLU1  SLDR  SLRO  SLNF  SLPF  SMHB  SMPX  SMKE
   -99  0.10   -99   0.3    60   -99  0.92   -99   -99   -99
@  SLB  SLMH  SLLL  SDUL  SSAT  SRGF  SSKS  SBDM  SLOC  SLCL  SLSI  SLCF  SLNI  SLHW  SLHB  SCEC  SADC
     5   -99  0.22  0.32 0.484 1.000   -99   1.3   0.9    35     9     0   -99   6.5   -99   -99   -99
    15   -99  0.22  0.32 0.484 1.000   -99   1.3   0.9    35     9     0   -99   6.5   -99   -99   -99
    30   -99  0.22  0.32 0.484 0.947   -99   1.3   0.9    35     9     0   -99   6.5   -99   -99   -99
    40   -99  0.16  0.25 0.484 0.722   -99   1.3   0.7    25    15     0   -99   6.5   -99   -99   -99
    50   -99  0.16  0.25 0.484 0.581   -99   1.3   0.7    25    15     0   -99   6.5   -99   -99   -99
    75   -99  0.16  0.25 0.484 0.397   -99   1.3   0.5    25    15     0   -99   6.5   -99   -99   -99
   100   -99  0.16  0.25 0.484 0.231   -99   1.3   0.5    25    15     0   -99   6.5   -99   -99   -99

!The ACE ID is N/A.
!This soil data is used for the experiment of MACH0069_1.
!
*TOA0230066  MSUWUR      -99     -99 -99
@SITE        COUNTRY          LAT     LONG SCS FAMILY
 -99         -99               -99     -99 -99
@ SCOM  SALB  SLU1  SLDR  SLRO  SLNF  SLPF  SMHB  SMPX  SMKE
   -99  0.10   -99   0.3    60   -99  0.92   -99   -99   -99
@  SLB  SLMH  SLLL  SDUL  SSAT  SRGF  SSKS  SBDM  SLOC  SLCL  SLSI  SLCF  SLNI  SLHW  SLHB  SCEC  SADC
     5   -99  0.22  0.32 0.484 1.000   -99   1.3   0.8    35     9     0   -99   6.5   -99   -99   -99
    15   -99  0.22  0.32 0.484 1.000   -99   1.3   0.8    35     9     0   -99   6.5   -99   -99   -99
    30   -99  0.22  0.32 0.484 0.947   -99   1.3   0.8    35     9     0   -99   6.5   -99   -99   -99
    40   -99  0.16  0.25 0.484 0.722   -99   1.3   0.7    25    15     0   -99   6.5   -99   -99   -99
    50   -99  0.16  0.25 0.484 0.581   -99   1.3   0.7    25    15     0   -99   6.5   -99   -99   -99
    75   -99  0.16  0.25 0.484 0.397   -99   1.3   0.5    25    15     0   -99   6.5   -99   -99   -99
   100   -99  0.16  0.25 0.484 0.231   -99   1.3   0.5    25    15     0   -99   6.5   -99   -99   -99

!The ACE ID is N/A.
!This soil data is used for the experiment of MACH0056_1.
!
*TOA0080076  MSUWUR      -99     -99 -99
@SITE        COUNTRY          LAT     LONG SCS FAMILY
 -99         -99               -99     -99 -99
@ SCOM  SALB  SLU1  SLDR  SLRO  SLNF  SLPF  SMHB  SMPX  SMKE
   -99  0.10   -99   0.3    60   -99  0.92   -99   -99   -99
@  SLB  SLMH  SLLL  SDUL  SSAT  SRGF  SSKS  SBDM  SLOC  SLCL  SLSI  SLCF  SLNI  SLHW  SLHB  SCEC  SADC
     5   -99  0.22  0.32 0.484 1.000   -99   1.3   0.9    35     9     0   -99   6.5   -99   -99   -99
    15   -99  0.22  0.32 0.484 1.000   -99   1.3   0.9    35     9     0   -99   6.5   -99   -99   -99
    30   -99  0.22  0.32 0.484 0.947   -99   1.3   0.9    35     9     0   -99   6.5   -99   -99   -99
    40   -99  0.15  0.24 0.484 0.722   -99   1.3     0    25    15     0   -99   5.5   -99   -99   -99
    50   -99  0.15  0.24 0.484 0.581   -99   1.3     0    25    15     0   -99   5.5   -99   -99   -99

!The ACE ID is N/A.
!This soil data is used for the experiment of MACH0040_1.
!
*TOA0230107  MSUWUR      -99     -99 -99
@SITE        COUNTRY          LAT     LONG SCS FAMILY
 -99         -99               -99     -99 -99
@ SCOM  SALB  SLU1  SLDR  SLRO  SLNF  SLPF  SMHB  SMPX  SMKE
   -99  0.10   -99   0.3    60   -99  0.92   -99   -99   -99
@  SLB  SLMH  SLLL  SDUL  SSAT  SRGF  SSKS  SBDM  SLOC  SLCL  SLSI  SLCF  SLNI  SLHW  SLHB  SCEC  SADC
     5   -99  0.27  0.39 0.484 1.000   -99   1.3   1.2    45     9     0   -99   6.5   -99   -99   -99
    15   -99  0.27  0.39 0.484 1.000   -99   1.3   1.2    45     9     0   -99   6.5   -99   -99   -99
    30   -99  0.27  0.39 0.484 0.947   -99   1.3   1.2    45     9     0   -99   6.5   -99   -99   -99
    40   -99  0.16  0.25 0.484 0.722   -99   1.3   0.7    25    15     0   -99   6.5   -99   -99   -99
    50   -99  0.16  0.25 0.484 0.581   -99   1.3   0.7    25    15     0   -99   6.5   -99   -99   -99
    75   -99  0.16  0.25 0.484 0.397   -99   1.3   0.5    25    15     0   -99   6.5   -99   -99   -99
   100   -99  0.16  0.25 0.484 0.231   -99   1.3   0.5    25    15     0   -99   6.5   -99   -99   -99

