! APPLIED DOME INFO
! MACH0075_1 Field    	MACHAKOS-1----FIELD
*EXP.DETAILS: MACH0075MZ 

*GENERAL

*TREATMENTS                        -------------FACTOR LEVELS------------
@N R O C TNAME.................... CU FL SA IC MP MI MF MR MC MT ME MH SM
 1 1 1 0 MACH0075_1                 1  1  1  1  1  1  1  1  0  0  0  0  1

*CULTIVARS
@C CR INGENO CNAME
 1 MZ 990003 SHORT SEASON

*FIELDS
@L ID_FIELD WSTA....  FLSA  FLOB  FLDT  FLDD  FLDS  FLST SLTX  SLDP  ID_SOIL    FLNAME
 1 -99      MK148031   -99   -99 -99     -99   -99 -99   -99    -99  TOA0230097 -99
@L ...........XCRD ...........YCRD .....ELEV .............AREA .SLEN .FLWR .SLAS FLHST FHDUR
 1         37.3002         -1.6653       -99               -99   -99   -99   -99   -99   -99

*SOIL ANALYSIS
@A SADAT  SMHB  SMPX  SMKE  SANAME
 1   -99   -99   -99   -99  -99
@A  SABL  SADM  SAOC  SANI SAPHW SAPHB  SAPX  SAKE  SASC
 1     5   -99     1   -99   -99   -99   -99   -99  0.75
 1    15   -99     1   -99   -99   -99   -99   -99  0.75
 1    30   -99     1   -99   -99   -99   -99   -99  0.80
 1    40   -99   0.7   -99   -99   -99   -99   -99  0.66
 1    50   -99   0.7   -99   -99   -99   -99   -99  0.68
 1    75   -99   0.5   -99   -99   -99   -99   -99  0.49
 1   100   -99   0.5   -99   -99   -99   -99   -99  0.49

*INITIAL CONDITIONS
@C   PCR ICDAT  ICRT  ICND  ICRN  ICRE  ICWD ICRES ICREN ICREP ICRIP ICRID ICNAME
 1    MZ 98045   -99   -99   -99   -99   -99   500   0.8   -99   -99   -99 -99
@C  ICBL  SH2O  SNH4  SNO3
 1     5 0.330  0.08  0.69
 1    15 0.330  0.08  0.69
 1    30 0.330  0.08  0.69
 1    40 0.205  0.08  0.69
 1    50 0.205  0.08  0.69
 1    75 0.205  0.08  0.69
 1   100 0.205  0.08  0.69

*PLANTING DETAILS
@P PDATE EDATE  PPOP  PPOE  PLME  PLDS  PLRS  PLRD  PLDP  PLWT  PAGE  PENV  PLPH  SPRL                        PLNAME
 1 98075   -99   3.5   3.5     S   -99    75   -99     5   -99   -99   -99   -99   -99                        -99

*IRRIGATION AND WATER MANAGEMENT
@I  EFIR  IDEP  ITHR  IEPT  IOFF  IAME  IAMT IRNAME
 1   -99   -99   -99   -99   -99   -99   -99 -99
@I IDATE  IROP IRVAL
 1 98103 IR001    50
 1 98115 IR001    40

*FERTILIZERS (INORGANIC)
@F FDATE  FMCD  FACD  FDEP  FAMN  FAMP  FAMK  FAMC  FAMO  FOCD FERNAME
 1 98089 FE005 AP002    10     0   -99   -99   -99   -99   -99 -99
 1 98120 FE005 AP002    10     0   -99   -99   -99   -99   -99 -99

*RESIDUES AND ORGANIC FERTILIZER
@R RDATE  RCOD  RAMT  RESN  RESP  RESK  RINP  RDEP  RMET RENAME
 1 98068 RE003  2696  4.82   -99   -99    50     5   -99 -99

*SIMULATION CONTROLS
@N GENERAL     NYERS NREPS START SDATE RSEED SNAME....................
 1 GE              1     1     S 98045  2150 DEFAULT SIMULATION CONTROL
@N OPTIONS     WATER NITRO SYMBI PHOSP POTAS DISES  CHEM  TILL   CO2
 1 OP              Y     Y     Y     N     N     N     N     Y     M
@N METHODS     WTHER INCON LIGHT EVAPO INFIL PHOTO HYDRO NSWIT MESOM MESEV MESOL
 1 ME              M     M     E     R     S     L     R     1     P     S     2
@N MANAGEMENT  PLANT IRRIG FERTI RESID HARVS
 1 MA              R     R     R     R     M
@N OUTPUTS     FNAME OVVEW SUMRY FROPT GROUT CAOUT WAOUT NIOUT MIOUT DIOUT VBOSE CHOUT OPOUT
 1 OU              N     Y     Y     1     Y     Y     N     N     N     N     N     N     N

@  AUTOMATIC MANAGEMENT
@N PLANTING    PFRST PLAST PH2OL PH2OU PH2OD PSTMX PSTMN
 1 PL          82050 82064    40   100    30    40    10
@N IRRIGATION  IMDEP ITHRL ITHRU IROFF IMETH IRAMT IREFF
 1 IR             30    50   100 GS000 IR001    10  1.00
@N NITROGEN    NMDEP NMTHR NAMNT NCODE NAOFF
 1 NI             30    50    25 FE001 GS000
@N RESIDUES    RIPCN RTIME RIDEP
 1 RE            100     1    20
@N HARVEST     HFRST HLAST HPCNP HPCNR
 1 HA              0 83057   100     0

