! APPLIED DOME INFO
! MACH0038_1 Field    	MACHAKOS-1----FIELD
*EXP.DETAILS: MACH0038MZ 

*GENERAL

*TREATMENTS                        -------------FACTOR LEVELS------------
@N R O C TNAME.................... CU FL SA IC MP MI MF MR MC MT ME MH SM
 1 1 1 0 MACH0038_1                 1  1  1  1  1  1  1  1  0  0  0  0  1

*CULTIVARS
@C CR INGENO CNAME
 1 MZ 990003 SHORT SEASON

*FIELDS
@L ID_FIELD WSTA....  FLSA  FLOB  FLDT  FLDD  FLDS  FLST SLTX  SLDP  ID_SOIL    FLNAME
 1 -99      MK148031   -99   -99 -99     -99   -99 -99   -99    -99  TOA0248085 -99
@L ...........XCRD ...........YCRD .....ELEV .............AREA .SLEN .FLWR .SLAS FLHST FHDUR
 1         37.2991         -1.6280       -99               -99   -99   -99   -99   -99   -99

*SOIL ANALYSIS
@A SADAT  SMHB  SMPX  SMKE  SANAME
 1   -99   -99   -99   -99  -99
@A  SABL  SADM  SAOC  SANI SAPHW SAPHB  SAPX  SAKE  SASC
 1     5   -99   0.9   -99   -99   -99   -99   -99  0.68
 1    15   -99   0.9   -99   -99   -99   -99   -99  0.68
 1    30   -99   0.9   -99   -99   -99   -99   -99  0.72
 1    41   -99   0.5   -99   -99   -99   -99   -99  0.47
 1    52   -99   0.5   -99   -99   -99   -99   -99  0.49
 1    81   -99   0.3   -99   -99   -99   -99   -99  0.29
 1   110   -99   0.3   -99   -99   -99   -99   -99  0.29
 1   167   -99   0.1   -99   -99   -99   -99   -99  0.10
 1   224   -99   0.1   -99   -99   -99   -99   -99  0.10
 1   280   -99   0.1   -99   -99   -99   -99   -99  0.10

*INITIAL CONDITIONS
@C   PCR ICDAT  ICRT  ICND  ICRN  ICRE  ICWD ICRES ICREN ICREP ICRIP ICRID ICNAME
 1    MZ 97045   -99   -99   -99   -99   -99   500   0.8   -99   -99   -99 -99
@C  ICBL  SH2O  SNH4  SNO3
 1     5 0.220  0.03  0.24
 1    15 0.220  0.03  0.24
 1    30 0.220  0.03  0.24
 1    41 0.315  0.03  0.24
 1    52 0.315  0.03  0.24
 1    81 0.330  0.03  0.24
 1   110 0.330  0.03  0.24
 1   167 0.360  0.03  0.24
 1   224 0.360  0.03  0.24
 1   280 0.360  0.03  0.24

*PLANTING DETAILS
@P PDATE EDATE  PPOP  PPOE  PLME  PLDS  PLRS  PLRD  PLDP  PLWT  PAGE  PENV  PLPH  SPRL                        PLNAME
 1 97075   -99   3.5   3.5     S   -99    75   -99     5   -99   -99   -99   -99   -99                        -99

*IRRIGATION AND WATER MANAGEMENT
@I  EFIR  IDEP  ITHR  IEPT  IOFF  IAME  IAMT IRNAME
 1   -99   -99   -99   -99   -99   -99   -99 -99
@I IDATE  IROP IRVAL
 1 97101 IR001    50
 1 97113 IR001    40

*FERTILIZERS (INORGANIC)
@F FDATE  FMCD  FACD  FDEP  FAMN  FAMP  FAMK  FAMC  FAMO  FOCD FERNAME
 1 97089 FE005 AP002    10     7   -99   -99   -99   -99   -99 -99
 1 97120 FE005 AP002    10    14   -99   -99   -99   -99   -99 -99

*RESIDUES AND ORGANIC FERTILIZER
@R RDATE  RCOD  RAMT  RESN  RESP  RESK  RINP  RDEP  RMET RENAME
 1 97068 RE003     0  4.82   -99   -99    50     5   -99 -99

*SIMULATION CONTROLS
@N GENERAL     NYERS NREPS START SDATE RSEED SNAME....................
 1 GE              1     1     S 97045  2150 DEFAULT SIMULATION CONTROL
@N OPTIONS     WATER NITRO SYMBI PHOSP POTAS DISES  CHEM  TILL   CO2
 1 OP              Y     Y     Y     N     N     N     N     Y     M
@N METHODS     WTHER INCON LIGHT EVAPO INFIL PHOTO HYDRO NSWIT MESOM MESEV MESOL
 1 ME              M     M     E     R     S     L     R     1     P     S     2
@N MANAGEMENT  PLANT IRRIG FERTI RESID HARVS
 1 MA              R     R     R     R     M
@N OUTPUTS     FNAME OVVEW SUMRY FROPT GROUT CAOUT WAOUT NIOUT MIOUT DIOUT VBOSE CHOUT OPOUT
 1 OU              N     Y     Y     1     Y     Y     N     N     N     N     N     N     N

@  AUTOMATIC MANAGEMENT
@N PLANTING    PFRST PLAST PH2OL PH2OU PH2OD PSTMX PSTMN
 1 PL          82050 82064    40   100    30    40    10
@N IRRIGATION  IMDEP ITHRL ITHRU IROFF IMETH IRAMT IREFF
 1 IR             30    50   100 GS000 IR001    10  1.00
@N NITROGEN    NMDEP NMTHR NAMNT NCODE NAOFF
 1 NI             30    50    25 FE001 GS000
@N RESIDUES    RIPCN RTIME RIDEP
 1 RE            100     1    20
@N HARVEST     HFRST HLAST HPCNP HPCNR
 1 HA              0 83057   100     0

